$ MSC.Nastran input file created on March     19, 2025 at 15:29:50 by
$ Patran 2024.2
$ Direct Text Input for Nastran System Cell Section
$ Direct Text Input for File Management Section
$ Direct Text Input for Executive Control
$ Normal Modes Analysis, Database
SOL 103
CEND
$ Direct Text Input for Global Case Control Data
TITLE = MSC.Nastran job created on 19-Mar-25 at 15:29:33
ECHO = NONE
$ Using Nastran default values for RESVEC
SUBCASE 1
$ Subcase name : Default
   SUBTITLE=Default
   METHOD = 1
 $  SPC = 2
   VECTOR(SORT1,REAL,punch)=ALL
   SPCFORCES(SORT1,REAL)=ALL
BEGIN BULK
$ Direct Text Input for Bulk Data
HDF5OUT PRCISION 32     CMPRMTHD LZ4     LEVEL   5
PARAM   PRTMAXIM YES
EIGRL    1                       20      0
$ Elements and Element Properties for region : shell
$ Composite Property Reference Material: Hexply_layup
$ Composite Material Description :

INCLUDE 'PCOMP.DAT'

INCLUDE 'CQUAD4.DAT'

param,grdpnt,0

$ Pset: "shell_properties" will be imported as: "pcomp.1"

$ Referenced Material Records
$ Material Record : Hexply_AS4_8552
$ Description of Material : Date: 18-Mar-25           Time: 15:51:24
$ MAT8*    10              1.263+11        8.7649997+9     .31
$ *        4.92+9          4.92+9          3.3500001+9     1600.
$
$ The data are obtained from the following papers
$ https://www.sciencedirect.com/science/article/pii/S0263822319341418?via%3Dihub#b0195
MAT8*    1               1.263+11        8.7649997+9     .334
*        4.92+9          4.92+9          3.3500001+9     1556.7
$ resin material property
$ MAT8,	2,	4.62e+9,	4.62e+9,	0.36,	1.70e+9,	1.70e+9,	1.70e+9,	1300.,	4.14e-05,	4.14e-05
$ https://energy.ornl.gov/CFCrush/materials/uou/8552_eu.pdf
MAT8,	2,	4.67e+9,	4.67e+9,	0.3,	1.70e+9,	1.70e+9,	1.70e+9,	1301.
$ Nodes of the Entire Model

INCLUDE 'GRID.DAT'

$ Loads for Load Case : Default
$ Referenced Coordinate Frames

$SPCADD   2       52     
$INCLUDE 'square_SPC1_LHS.dat'
$ INCLUDE 'square_SPC1_RHS.dat'
$ INCLUDE 'square_SPC1_THS.dat'
$ INCLUDE 'square_SPC1_BHS.dat'


ENDDATA c3fbb943
